{"type":"wb","version":2,"source":"https://www.iodraw.com","elements":[{"id":"ySlD2OxjEJIs7eUVs36xA","type":"text","x":657,"y":292,"width":9773,"height":28,"angle":0,"strokeColor":"#000000","backgroundColor":"transparent","fillStyle":"hachure","strokeWidth":1,"strokeStyle":"solid","roughness":1,"opacity":100,"groupIds":[],"strokeSharpness":"sharp","seed":312621188,"version":1,"versionNonce":0,"isDeleted":false,"boundElements":null,"updated":1764208359756,"link":null,"text":"1. 核心坐标系定义全局惯性坐标系 ($i$, Inertial):固定在大地，$Z$ 轴通常垂直向上（取决于 OpenFAST 设置，通常 $X$ 为风向）。所有结构运动（TranslationVel, Orientation）最初都是在这个坐标系下描述的。轮毂/圆盘坐标系 ($d$, Disk/Hub):原点在轮毂中心。$x_d$ 轴：沿着转轴指向下风向（推力方向）。随塔架偏航（Yaw）和倾斜（Tilt）旋转，但不随叶片旋转。局部极坐标系 ($l$, Local-Polar/Annulus) —— Vx, Vy 所在这是 BEM 计算的基础坐标系。它是不随叶片变桨和扭转旋转的，但随叶片方位角旋转。$x_l$ 轴 (Axial/Normal)：垂直于旋转平面，指向下风向。对应 Vx。$y_l$ 轴 (Tangential)：在旋转平面内，指向切向（与旋转方向相反）。对应 Vy。$z_l$ 轴 (Radial)：沿着叶片展向，从轮毂指向叶尖。翼型/截面坐标系 ($a$, Airfoil):固定在叶片截面上，随叶片变桨（Pitch）、扭转（Twist）、预锥（Precone/Cant）和前倾（Toe）而旋转。$x_a$ 轴 (Chord)：沿着弦线，指向后缘。$y_a$ 轴 (Normal)：垂直于弦线，指向吸力面（上表面）。$z_a$ 轴 (Span)：沿着展向。$C_l$ (升力) 和 $C_d$ (阻力) 定义在这个坐标系的气流方向上。","fontSize":20,"fontFamily":1,"textAlign":"left","verticalAlign":"top","baseline":21,"containerId":null,"originalText":"1. 核心坐标系定义全局惯性坐标系 ($i$, Inertial):固定在大地，$Z$ 轴通常垂直向上（取决于 OpenFAST 设置，通常 $X$ 为风向）。所有结构运动（TranslationVel, Orientation）最初都是在这个坐标系下描述的。轮毂/圆盘坐标系 ($d$, Disk/Hub):原点在轮毂中心。$x_d$ 轴：沿着转轴指向下风向（推力方向）。随塔架偏航（Yaw）和倾斜（Tilt）旋转，但不随叶片旋转。局部极坐标系 ($l$, Local-Polar/Annulus) —— Vx, Vy 所在这是 BEM 计算的基础坐标系。它是不随叶片变桨和扭转旋转的，但随叶片方位角旋转。$x_l$ 轴 (Axial/Normal)：垂直于旋转平面，指向下风向。对应 Vx。$y_l$ 轴 (Tangential)：在旋转平面内，指向切向（与旋转方向相反）。对应 Vy。$z_l$ 轴 (Radial)：沿着叶片展向，从轮毂指向叶尖。翼型/截面坐标系 ($a$, Airfoil):固定在叶片截面上，随叶片变桨（Pitch）、扭转（Twist）、预锥（Precone/Cant）和前倾（Toe）而旋转。$x_a$ 轴 (Chord)：沿着弦线，指向后缘。$y_a$ 轴 (Normal)：垂直于弦线，指向吸力面（上表面）。$z_a$ 轴 (Span)：沿着展向。$C_l$ (升力) 和 $C_d$ (阻力) 定义在这个坐标系的气流方向上。"}],"appState":{"theme":"light","currentChartType":"bar","currentItemBackgroundColor":"transparent","currentItemEndArrowhead":"arrow","currentItemFillStyle":"hachure","currentItemFontFamily":1,"currentItemFontSize":20,"currentItemLinearStrokeSharpness":"round","currentItemOpacity":100,"currentItemRoughness":1,"currentItemStartArrowhead":null,"currentItemStrokeColor":"#000000","currentItemStrokeSharpness":"sharp","currentItemStrokeStyle":"solid","currentItemStrokeWidth":1,"currentItemTextAlign":"left","cursorButton":"up","editingGroupId":null,"elementLocked":false,"elementType":"selection","exportBackground":true,"exportScale":1,"exportEmbedScene":false,"exportWithDarkMode":false,"gridSize":null,"lastPointerDownWith":"mouse","name":"Untitled-2025-11-27-0952","openMenu":null,"previousSelectedElementIds":{},"scrolledOutside":false,"scrollX":0,"scrollY":0,"selectedElementIds":{"ySlD2OxjEJIs7eUVs36xA":true},"selectedGroupIds":{},"shouldCacheIgnoreZoom":false,"showStats":false,"viewBackgroundColor":"#ffffff","zenModeEnabled":false,"zoom":{"value":1}},"files":{}}