{"type":"wb","version":2,"source":"https://www.iodraw.com","elements":[{"id":"6XheCqV9ZUtlXLxzVXiZZ","type":"text","x":295,"y":87.28569030761719,"width":500,"height":75,"angle":0,"strokeColor":"#000000","backgroundColor":"transparent","fillStyle":"hachure","strokeWidth":1,"strokeStyle":"solid","roughness":1,"opacity":100,"groupIds":[],"strokeSharpness":"sharp","seed":847946643,"version":222,"versionNonce":941691955,"isDeleted":false,"boundElements":null,"updated":1763042563032,"link":null,"text":"主要对比当其他参数都相同时，模拟时间不同导致的结果\n目前对比模拟时长130秒和690秒的对比\n","fontSize":20,"fontFamily":2,"textAlign":"left","verticalAlign":"top","baseline":71,"containerId":null,"originalText":"主要对比当其他参数都相同时，模拟时间不同导致的结果\n目前对比模拟时长130秒和690秒的对比\n"},{"id":"wGOg8_SUkkuOtqKSDSyKM","type":"text","x":206.8570556640625,"y":167.85711669921875,"width":964,"height":601,"angle":0,"strokeColor":"#000000","backgroundColor":"transparent","fillStyle":"hachure","strokeWidth":1,"strokeStyle":"solid","roughness":1,"opacity":100,"groupIds":[],"strokeSharpness":"sharp","seed":229335987,"version":129,"versionNonce":625982589,"isDeleted":false,"boundElements":null,"updated":1763042563032,"link":null,"text":"关于湍流强度差异的原因\n设置的 IECturbc = 8.03 是目标湍流强度，但实际生成的湍流强度（7.0986 和 7.8469）与之不同，原因包括：\n\n1. IEC 标准的复杂性\nIEC 61400-1 标准中的湍流强度是基于特定高度和风速条件的\nTurbSim 会根据风切变、大气稳定性等因素调整实际值\n2. 空间和时间平均的差异\n8.03% 可能是某个参考点或参考条件下的值\nPyDatView 显示的是整个风场网格和时间序列的平均值\n不同位置的湍流强度会有变化\n3. 模型修正\nTurbSim 的 NWTCUP 模型会对理论值进行修正\n考虑了实际大气边界层的物理特性\n包含了相干结构和谱特性的影响\n4. 时间长度的影响\n较长的仿真时间（690秒）通常会产生更接近目标值的统计特性\n130秒可能不足以充分发展所有湍流尺度\n建议\n检查输入参数：确认风速、高度、地表粗糙度等参数设置\n查看详细输出：检查 TurbSim 的 .sum 文件，了解实际计算的参数\n位置分析：在 PyDatView 中查看不同网格点的湍流强度分布\n时间序列分析：分析不同时间段的湍流强度变化\n这些差异在工程应用中是正常的，重要的是理解其物理意义并确保仿真设置符合您的研究目标。","fontSize":20,"fontFamily":2,"textAlign":"left","verticalAlign":"top","baseline":596,"containerId":null,"originalText":"关于湍流强度差异的原因\n设置的 IECturbc = 8.03 是目标湍流强度，但实际生成的湍流强度（7.0986 和 7.8469）与之不同，原因包括：\n\n1. IEC 标准的复杂性\nIEC 61400-1 标准中的湍流强度是基于特定高度和风速条件的\nTurbSim 会根据风切变、大气稳定性等因素调整实际值\n2. 空间和时间平均的差异\n8.03% 可能是某个参考点或参考条件下的值\nPyDatView 显示的是整个风场网格和时间序列的平均值\n不同位置的湍流强度会有变化\n3. 模型修正\nTurbSim 的 NWTCUP 模型会对理论值进行修正\n考虑了实际大气边界层的物理特性\n包含了相干结构和谱特性的影响\n4. 时间长度的影响\n较长的仿真时间（690秒）通常会产生更接近目标值的统计特性\n130秒可能不足以充分发展所有湍流尺度\n建议\n检查输入参数：确认风速、高度、地表粗糙度等参数设置\n查看详细输出：检查 TurbSim 的 .sum 文件，了解实际计算的参数\n位置分析：在 PyDatView 中查看不同网格点的湍流强度分布\n时间序列分析：分析不同时间段的湍流强度变化\n这些差异在工程应用中是正常的，重要的是理解其物理意义并确保仿真设置符合您的研究目标。"},{"id":"06Zqc2X7CgmIdZQQfAcvb","type":"image","x":1253.7341452338692,"y":264.00006103515625,"width":663.960542540074,"height":422,"angle":0,"strokeColor":"transparent","backgroundColor":"transparent","fillStyle":"hachure","strokeWidth":1,"strokeStyle":"solid","roughness":1,"opacity":100,"groupIds":[],"strokeSharpness":"round","seed":1366490387,"version":211,"versionNonce":1920513331,"isDeleted":false,"boundElements":null,"updated":1763042668910,"link":null,"status":"saved","fileId":"1a625018329eb69950a5aedeaf561f3e284f4144","scale":[1,1]},{"id":"J6H8F5YsHTkaxPRRhkgQT","type":"text","x":1271.3572845458984,"y":226.67853546142578,"width":554,"height":26,"angle":0,"strokeColor":"#000000","backgroundColor":"transparent","fillStyle":"hachure","strokeWidth":1,"strokeStyle":"solid","roughness":1,"opacity":100,"groupIds":[],"strokeSharpness":"sharp","seed":952474589,"version":94,"versionNonce":267320115,"isDeleted":false,"boundElements":null,"updated":1763042666106,"link":null,"text":"当时间为690秒时，湍流强度平均值为7.8469，接近设定的8.06","fontSize":20,"fontFamily":2,"textAlign":"left","verticalAlign":"top","baseline":21,"containerId":null,"originalText":"当时间为690秒时，湍流强度平均值为7.8469，接近设定的8.06"},{"id":"XLftu35r-aEDnGEfHzR3_","type":"image","x":1253.8597415483555,"y":757.2499465942383,"width":660.995085995086,"height":422,"angle":0,"strokeColor":"transparent","backgroundColor":"transparent","fillStyle":"hachure","strokeWidth":1,"strokeStyle":"solid","roughness":1,"opacity":100,"groupIds":[],"strokeSharpness":"round","seed":815613043,"version":60,"versionNonce":678439219,"isDeleted":false,"boundElements":null,"updated":1763042685956,"link":null,"status":"saved","fileId":"78ad4e63d3a23d64e3874a50926f60fcaf5f9b11","scale":[1,1]}],"appState":{"theme":"light","currentChartType":"bar","currentItemBackgroundColor":"transparent","currentItemEndArrowhead":"arrow","currentItemFillStyle":"hachure","currentItemFontFamily":2,"currentItemFontSize":20,"currentItemLinearStrokeSharpness":"round","currentItemOpacity":100,"currentItemRoughness":1,"currentItemStartArrowhead":null,"currentItemStrokeColor":"#000000","currentItemStrokeSharpness":"sharp","currentItemStrokeStyle":"solid","currentItemStrokeWidth":1,"currentItemTextAlign":"left","cursorButton":"up","editingGroupId":null,"elementLocked":false,"elementType":"selection","exportBackground":true,"exportScale":1,"exportEmbedScene":false,"exportWithDarkMode":false,"gridSize":null,"lastPointerDownWith":"mouse","name":"Untitled-2025-11-13-2154","openMenu":null,"previousSelectedElementIds":{"XLftu35r-aEDnGEfHzR3_":true},"scrolledOutside":false,"scrollX":-763.3572845458984,"scrollY":-202.67853546142578,"selectedElementIds":{"XLftu35r-aEDnGEfHzR3_":true,"w5gCl7NYoG_eAA21bWCX9":true},"selectedGroupIds":{},"shouldCacheIgnoreZoom":false,"showStats":false,"viewBackgroundColor":"#ffffff","zenModeEnabled":false,"zoom":{"value":1}},"files":{"1a625018329eb69950a5aedeaf561f3e284f4144":{"mimeType":"image/png","id":"1a625018329eb69950a5aedeaf561f3e284f4144","dataURL":"data:image/png;base64,iVBORw0KGgoAAAANSUhEUgAABPwAAAMrCAYAAADdoYzvAAAAAXNSR0IArs4c6QAAIABJREFUeF7s3Qd4XOWd9/2fepfVJatZxd2YZjrBQCihdxKSkF422X2yIZtk09umPbt5yJOyeZNsCIQQEsoCpgQCBDAY2xgDLmCMuy3b6r2NrJFm3vd/siev4riMdKTjGc13rosLsM45931//vecOfr5nLkTAoFAOD09XbwQQAABBBBAAAEEEEAAAQQQQAABBBBAIPYFEgj8Yr+IjAABBBBAAAEEEEAAAQQQQAABBBBAAAFXgMCPuYAAAggggAACCCCAAAIIIIAAAggggMA0EiDwm0bFZCgIIIAAAggggAACCCCAAAIIIIAAAggQ+DEHEEAAAQQQQAABBBBAAAEEEEAAAQQQmEYCBH7TqJgMBQEEEEAAAQQQQAABBBBAAAEEEEAAAQI/5gACCCCAAAIIIIAAAggggAACCCCAAALTSIDAbxoVk6EggAACCCCAAAIIIIAAAggggAACCCBA4MccQAABBBBAAAEEEEAAAQQQQAABBBBAYBoJEPhNo2IyFAQQQAABBBBAAAEEEEAAAQQQQAABBAj8xjkHwuGw7J+EhIRx7snmCCCAAAIIIIAAAggggAACCCCAAAIIjE/AzaHGk0UR+I3D2IAPHDignp4eZWRkKDExcRx7sykCCCCAAAIIIIAAAggggAACCCCAAAKRC4RCIQUCAc2YMUNpaWkR34BG4Be5sQYHB7V69Wr9+Mc/VlJSUsTI1kRqaqqzjxWJFwIIIIAAAggggAACCCCAAAIIIIAAAkcTsJvPRkdH9elPf1pnnnmmMjMzj7aL83MCv4iY/rLRwMCAHnroIX3iE5/Q9ddf76Srkd7lNzIy4jwKnJKSMo4W2RQBBBBAAAEEEEAAAQQQQAABBBBAIB4F7O4+e8r0gQce0C9+8Qtde+21ysrKioiCwC8ipr9sZI/zLlu2zElV//SnP6m2tjbiAK+jo0NDQ0OqqKgYR4tsigACCCCAAAIIIIAAAggggAACCCAQjwLBYFC7du3SJZdc4jxtes011ziP9UbyIvCLROl/tnEDv1tuuUXLly9XfX29kpOTIzpCV1eXExiWlZVFtD0bIYAAAggggAACCCCAAAIIIIAAAgjEr4A9Lbpjxw6dd955+tGPfkTgN1VTwUvgZ7dgDg8Pq7i4eKq6x3ERQAABBBBAAAEEEEAAAQQQQAABBKaJAIGfT4X0Evi1tbU5j/RWVVX51FuaQQABBBBAAAEEEEAAAQQQQAABBBCIVQECP58q5yXw6+7udh7pLS0t9am3NIMAAggggAACCCCAAAIIIIAAAgggEKsCBH4+Vc5L4Nfb2yv7ssXCwkKfekszCCCAAAIIIIAAAggggAACCCCAAAKxKkDg51PlvAR+e/fuVX9/vxYsWOBTb2kGAQQQQAABBBBAAAEEEEAAAQQQQCBWBQj8fKqcl8DPihQKhZSamupTb2kGAQQQQAABBBBAAAEEEEAAAQQQQCBWBQj8fKqcl8CPRTt8KhLNIIAAAggggAACCCCAAAIIIIAAAtNAgMDPpyJ6Cfy6urqcRTvKysp86i3NIIAAAggggAACCCCAAAIIIIAAAgjEqgCBn0+V8xL4BQIBjY6OKjs726fe0gwCCCCAAAIIIIAAAggggAACCCCAQKwKEPj5VDkvgR+LdvhUJJpBAAEEEEAAAQQQQAABBBBAAAEEpoEAgZ9PRfQS+A0MDCgYDCovL8+n3tIMAggggAACCCCAAAIIIIAAAggggECsChD4+VQ5L4FfZ2en8x1+M2fO9Km3NIMAAggggAACCCCAAAIIIIAAAgggEKsCBH4+Vc5L4Nfe3u4EfhUVFT71lmYQQAABBBBAAAEEEEAAAQQQQAABBGJVgMDPp8p5Cfx6eno0PDys4uJin3pLMwgggAACCCCAAAIIIIAAAggggAACsSpA4OdT5bwEft3d3c4dfqWlpT71lmYQQAABBBBAAAEEEEAAAQQQQAABBGJVgMDPp8p5Cfza2toUCARUXV3tU29pBgEEEEAAAQQQQAABBBBAAAEEEEAgVgUI/HyqnJfAr7e311mlt7Cw0Kfe0gwCCCCAAAIIIIAAAggggAACCCCAQKwKEPj5VDkvgV9HR4fzSG95eblPvY28mZFQWK29QxoKjqoiP1OpyYlKiHx3tkQAAQQQQAABBBBAAAEEEEAAAQQQmGQBAr9JBj3c4bwEfq2trRocHFRNTY1PvY28me2t/XppZ4f6h0Z00cJSzSrMUnISkV/kgmyJAAIIIIAAAggggAACCCCAAAIITK4Agd/keh72aF4CPytSOBxWSkqKT72NvJlbn9qih9c3KikxQTedWqX3njFL2WnJkR+ALRFAAAEEEEAAAQQQQAABBBBAAAEEJlWAwG9SOQ9/MC+B3/79+507/ObMmeNTbyNvZvmWVv129R7nLr8FM3P103efpLLcdCUmcpdf5IpsiQACCCCAAAIIIIAAAggggAACCEyeAIHf5Fke8UheAr+BgQFZoWbMmOFTbyNvpq3vgO5YuUt3r2lQWnKivnTZAp0zp0hF2WmRH4QtEUAAAQQQQAABBBBAAAEEEEAAAQQmTYDAb9Ioj3wgL4GfrdI7PDysoqIin3obeTOhcFiPv96kO1ft1uv7e/X2+SX6x/Pqtah8hhK4yS9ySLZEAAEEEEAAAQQQQAABBBBAAAEEJkmAwG+SII92GC+BX1NTk/NIb319/dGaOSY/t4U7lq3br/9asVM5acn6xpWL9PYFJXyX3zGpBo0igAACCCCAAAIIIIAAAggggEC8CxD4+TQDvAR+tu/o6KgyMzN96u34mhkJhbVia5u+8MBGtfcP6wNnzdINS6q0qDx3fAdiawQQQAABBBBAAAEEEEAAAQQQQAABzwIEfp4JIzuAl8CvpaVFgUBANTU1kTXm81ZhSdtb+nTn6j168LV9qszP1MfOqdUNSyqVwHO9PleD5hBAAAEEEEAAAQQQQAABBBBAIN4FCPx8mgFeAr/Ozk7Z/jNnzvSpt+NvpjcQ1GsNXfrSg6+rb2hEN55SqQ+dVaPqwqzxH4w9EEAAAQQQQAABBBBAAAEEEEAAAQQmLEDgN2G68e3oJfDr7u52Fu0oKSkZX6M+bm2Ld7T0HtDXH35Da3d3al5pjt5zerWuPrHCx17QFAIIIIAAAggggAACCCCAAAIIIIAAgZ9Pc8BL4NfR0eHc4VdeXu5TbyfWzODwqB7d0KjbV+5SZ/+w3rGoTF+8bL6yUpNZsXdipOyFAAIIIIAAAggggAACCCCAAAIIjFuAwG/cZBPbwUvg197erqGhIVVWVk6scZ/2srv8OgeG9cUHXtfzW9u0uGKGvnzZfB1fmafU5ESfekEzCCCAAAIIIIAAAggggAACCCCAQHwLEPj5VH8vgV9/f7+CwaDy8/N96u3EmxkNhfVfL+zUQ+v2Od/ld+lxZbrlwrnKzUiZ+EHZEwEEEEAAAQQQQAABBBBAAAEEEEAgYgECv4ipvG3oJfBrbW117vCrrq721gmf9l7X0KXbV+7W0282q64oWz+48QTVF2cpPSXJpx7QDAIIIIAAAggggAACCCCAAAIIIBC/AgR+PtXeS+DX1dXlfIdfWVmZT7311kzfUFC/e6lBv1m1S4HhkD594RznTr/yvAxvB2ZvBBBAAAEEEEAAAQQQQAABBBBAAIGjChD4HZVocjbwEvgNDAzICjVjxozJ6YwPR7Hv8PvdS3uc7/I7uTpPn714nk6qzldyYoIPrdMEAggggAACCCCAAAIIIIAAAgggEL8CBH4+1d5L4NfQ0CAL/RYsWOBTb70309o7pMc2Num7j2+WRXzfvuY45y6/vMxU7wfnCAgggAACCCCAAAIIIIAAAggggAAChxUg8PNpcngJ/GzBjlAopLS0NJ96672ZkVBYa3d16nuPv6ktzf265Lgyvef0ap1RV+j94BwBAQQQQAABBBBAAAEEEEAAAQQQQIDA71jPAS+BX3t7u7NoR2Vl5bEexrja39s5qIfW7devVux0Vun9yNm1TujH4h3jYmRjBBBAAAEEEEAAAQQQQAABBBBAYFwC3OE3Lq6Jb+wl8Ovo6HACv4qKiol34BjsOTg8os2Nffrigxu1rzugyxfP1IfPrtXC8txj0BuaRAABBBBAAAEEEEAAAQQQQAABBOJDgMDPpzp7CfwGBwedRTtyc2MvKOseHNb3Hn9Lz21pVWlOmm5YUqX3nzlLiSze4dPMoxkEEEAAAQQQQAABBBBAAAEEEIg3AQI/nyruJfBrbGx0Fu2YM2eOT72dvGYOBENavbND//fprdrS0qfz5xfr3687XjnpyUpIYMXeyZPmSAgggAACCCCAAAIIIIAAAggggMBfBAj8fJoJXgK/3t5e2cIdhYWxt+BFOCz1HxjRNx5+Q8+81arK/Ax94tx6XbiwVBkpST7p0wwCCCCAAAIIIIAAAggggAACCCAQPwIEfj7V2kvg19XVJdu/rKzMp95ObjMW+t27tkH3vrJXezoGdfbsIn3jioUqzE4TN/lNrjVHQwABBBBAAAEEEEAAAQQQQAABBAj8fJoDXgK/WF20YyztttY+/Wblbi1b36ii7FR9/7rjdXzlDGWnJftUAZpBAAEEEEAAAQQQQAABBBBAAAEE4kOAwM+nOnsJ/GL9Dj8jHgmFdO/Le/WrFbvU3n9A7z29WjedVq3aoiyfKkAzCCCAAAIIIIAAAggggAACCCCAQHwIEPj5VGcvgV8sf4ffWN7XGrp079q9euDVfarIz9B3rjlOZ9cXsWKvT3OQZhBAAAEEEEAAAQQQQAABBBBAID4ECPx8qrOXwK+5uVmBQEC1tbU+9XZqmukdCurpN1v0tWVvaCQU1qcvmKMrTyhXdUHm1DTIURFAAAEEEEAAAQQQQAABBBBAAIE4FCDw86noXgK/vr4+Z5XegoICn3o7Nc2EwmFt2Nutnzy7Tat2dOjUmgJ94MxZumhhbC5GMjVKHBUBBBBAAAEEEEAAAQQQQAABBBDwJkDg580v4r29BH7T4Tv8XKiW3iE9s7lVP3hqi5ISpPedOUvvP6NG+VmpEVuyIQIIIIAAAggggAACCCCAAAIIIIDA4QUI/HyaHV4Cv+nySK9RB0dD2ts5qE/fs17bWvt13txiffDsGp1RV+hTJWgGAQQQQAABBBBAAAEEEEAAAQQQmN4CBH4+1ddL4BcOh2X/JCYm+tTbqW2mb2hEv3xhhx5et99ZsOPqE8t1y4VzlZiQMLUNc3QEEEAAAQQQQAABBBBAAAEEEEAgDgQI/HwqspfAr7GxUYODg5o9e7ZPvZ3aZuwuv60tffrWo29qfUO3zppdqG9euUiVBZlKTiT0m1p9jo4AAggggAACCCCAAAIIIIAAAtNdgMDPpwp7Cfymy6IdLnU4LAWCI7r1qa16/PUmZaYm6+bTq/XOU6uUlZbsU0VoBgEEEEAAAQQQQAABBBBAAAEEEJieAgR+PtXVS+DX29ur4eFhFRUV+dRbf5p5clOzfvfSHq3f260Tq/L03WsWqzwvQ8m2mgcvBBBAAAEEEEAAAQQQQAABBBBAAIEJCRD4TYht/Dt5Cfxs0Q57pLeurm78DUfxHrZi7+0rdzmhX3pykr577WKdXleg/ExW7I3istE1BBBAAAEEEEAAAQQQQAABBBCIcgECP58K5CXws7DPCpWbm+tTb/1r5uH1jfr1i7u0raVPlywq08fPrdOCmdNvnP6J0hICCCCAAAIIIIAAAggggAACCMS7AIGfTzPAS+DX3t6uoaEhVVZW+tRb/5rZ1tqvB1/dp1++sFP5mSn69jXH6fz5JcpISfKvE7SEAAIIIIAAAggggAACCCCAAAIITCMBAj+fiukl8Ovs7HQCv/Lycp96618zAwdG9MLWNn338c1q6T2gD5w5S9cvqeQuP/9KQEsIIIAAAggggAACCCCAAAIIIDDNBAj8fCqol8Cvu7vbWbSjpKTEp97628yW5l7dtmKXHnu9SXNKsvXBs2p01YnlSk5M9LcjtIYAAggggAACCCCAAAIIIIAAAghMA4G4D/yamprU0dGh/v5+p5zz589XTk6OkpKSnIUy9u/fr56eHllgV1pa6jxWm56ePu7Sewn8urq6nPbLysrG3W4s7NA1OKyXd3Xqm49sUk8gqPecVq2PnlOrshkZsdB9+ogAAggggAACCCCAAAIIIIAAAghElUDcB3633Xabli1bpvXr1zt30d199906/fTTnQUyNm3apJ/97GdauXKldu7cqZtvvlmf//znJ7RarpfAr6WlRYFAQDU1NVE1eSarM+Gw1N5/QJ++Z5027uvRCVUz9N7TZ+myxTMnqwmOgwACCCCAAAIIIIAAAggggAACCMSNQNwHfmvXrnXu4LNwz8K/H//4xzrllFOcwM+CtldffVXZ2dn6wQ9+4Nz998lPftL3wG86r9LrvtPsu/weXLdfd67ara6BYV26uEzfuHKRkpMSlRA3b0cGigACCCCAAAIIIIAAAggggAACCHgXiPvAz74fz152F99Xv/pV3XrrrX8N/OyuvN7eXmVmZuqf/umfnEdqP/7xj/se+FnwaIt2zJo1y3vFo/QIo6Gw9nYN6tuPbdaanR1aVJ6rz71jnk6ozFNqMt/lF6Vlo1sIIIAAAggggAACCCCAAAIIIBCFAnEf+Lk1eeaZZ/S5z33ubwK/sfX6yEc+ouLi4ogCv1AoJPcf9xgWHj7yyCNOG8uXL1d9fb2Sk5MjmhK2Sq/tP3Pm9H7E1UK/nz23XcvW7deBkZCuOqFcnzivXjMyUiJyYiMEEEAAAQQQQAABBBBAAAEEEEAAAYnA739mwWQGfhbQ7du3T7YgiPuy7wdcvXq17rjjjnEHfnZ33+joqLKysqb9nLW7++5cvUfLt7SqrihLP3zXiaopzOIuv2lfeQaIAAIIIIAAAggggAACCCCAAAKTJUDgNwWB3wsvvKBf//rXuu+++/6mThbaFRYWjjvwa2hocFYRXrhw4WTVPWqPcyA4ql+t2KVfvrBDiQkJ+vw75umihaUqzR3/yshRO0g6hgACCCCAAAIIIIAAAggggAACCEyhAIHfFAR+fX19am1tVUdHx19LFwwG9fzzz+unP/3puAM/uzvQHhFOT5/+oZet2Pvcllb97qU9enF7u5ZU5+tfL5mnk6rzp/BtwKERQAABBBBAAAEEEEAAAQQQQACB6SNA4DcFgV84HD7sd/h99rOfHXfg197e7izaUVlZOX1m3hFGsr87oMc2NOrWp7cqMyVJX7h0vi5eWKrC7LS4GD+DRAABBBBAAAEEEEAAAQQQQAABBLwIxH3gt2HDBm3fvl2rVq3S/fffr3e9613OKrxnnXWWKioq9Nprr6mxsdF5RDc7O1vnn3++ampqdOWVVyojIyNie1t0Y9myZbrlllvGHfi1tbU5gV9VVVXE7cXyhsHRkF7a2aHvP75Z21r7dfWJFbrp1CqdUlMQy8Oi7wgggAACCCCAAAIIIIAAAggggIAvAnEf+D344INOALdz507ne/Is1LMgz4K/k046Sffcc482btwoW4gjISHBWTijtLRU3//+95WfH/ljpl4Cv4GBAdkjwXl5eb5MimhoZHfHgO5/ZZ9+u3q3irLT9KGza/SuU6qVlpIYDd2jDwgggAACCCCAAAIIIIAAAggggEDUCsR94OdXZbwEfi0tLQoEAs6dhfHyGgqOaktznz7xu1fV0ntAN55SqX9YWq+64um/UnG81JhxIoAAAggggAACCCCAAAIIIIDA1AgQ+E2N698d1Uvg193dLdvf7iyMl5d9D2LHwLC+//hben5rm8rz0vXOU6p08xmz4oWAcSKAAAIIIIAAAggggAACCCCAAAITEiDwmxDb+HfyGvjZSr0lJSXjbziG97C7/F7Y1qafPLNdDZ2DumB+ib56xULlZ6YoMSEhhkdG1xFAAAEEEEAAAQQQQAABBBBAAIGpEyDwmzrbvzmyl8Cvo6PDucOvvLzcp95GRzOhcFidA8P67h8369m3WlVdkKlPXTBHS+cUKT0lKTo6SS8QQAABBBBAAAEEEEAAAQQQQACBKBMg8POpIF4DP1ul11YNjsfXXav36P5X9qqpd0jnzS3WFy6Zr4LsVO7yi8fJwJgRQAABBBBAAAEEEEAAAQQQQOCoAgR+RyWanA28BH6Dg4OyQuXm5k5OZ2LsKDta+/WrFTt1/6v7VJKTpv963xLNLc1RGnf5xVgl6S4CCCCAAAIIIIAAAggggAACCPghQODnh7LkPJK7bNky3XLLLVq+fLnq6+uVnJwcUeuNjY2y0G/27NkRbT/dNhoeCekPLzfo9hd3qXNwWB84q0Y3LqnUrEJW7J1utWY8CCCAAAIIIIAAAggggAACCCDgXYDAz7thREfwEvj19/crGAwqPz8/oram40Zrd3fqnpcb9MiGJs0uydJXLluo0+sKlJKUOB2Hy5gQQAABBBBAAAEEEEAAAQQQQACBCQsQ+E2Ybnw7egn8enp6ZKv0FhcXj6/RabR1e/8BPbWpRf/xp7c0NBLSZy6coytOKFdFXsY0GiVDQQABBBBAAAEEEEAAAQQQQAABBLwLEPh5N4zoCF4Cv+bmZgUCAdXW1kbU1nTcKByW1jd06T+e3KJXG7p0zpwi3XzGLJ03t0QJCdNxxIwJAQQQQAABBBBAAAEEEEAAAQQQmJgAgd/E3Ma9l5fAL2xpl6SEOE+2mnuH9PSmZt361FaFwtLHz63TR99Wq3QW7xj3fGQHBBBAAAEEEEAAAQQQQAABBBCYvgIEfj7V1kvgF++LdrglCo6GtLtjQP/8h/Xa3T6gt88vcRbwOK22wKcq0gwCCCCAAAIIIIAAAggggAACCCAQ/QIEfj7VyEvgx3f4/aVIdp9jbyCony/frkc3NCktOVHXnFSh/3X+bCUm8lyvT1OZZhBAAAEEEEAAAQQQQAABBBBAIMoFCPx8KpCXwK+3t9dZtKOoqMin3kZvM8MjIW3Y263/89QWbWrs1Zl1hfrK5QtUWZCpZEK/6C0cPUMAAQQQQAABBBBAAAEEEEAAAd8ECPx8ovYS+LW0tDiLdtTU1PjU2+htxu7yC46E9O3H3tQTbzQrPytFHzyrRtecWKGstOTo7Tg9QwABBBBAAAEEEEAAAQQQQAABBHwSIPDzCdpL4NfX16dgMKiCAr6rzi3XHzc26e41e7RxX49OqMzTj246QUXZ6azY69N8phkEEEAAAQQQQAABBBBAAAEEEIheAQI/n2rjJfDr7OyU7T9z5kyfehv9zbT0DulXK3bqdy/tUV5Gqr59zXE6taZAeZkp0d95eogAAggggAACCCCAAAIIIIAAAghMoQCB3xTijj20l8Cvo6NDQ0NDqqio8Km30d/MyGhIj2xo1G9W7db21n5dfvxMffScOs0rzYn+ztNDBBBAAAEEEEAAAQQQQAABBBBAYAoFCPymEHeyAr/u7m7nDr/S0lKfehsbzWxu6tUDr+7Tnat3q2xGur5y2QItnVuszFS+yy82KkgvEUAAAQQQQAABBBBAAAEEEEBgKgQI/KZC9RDH9HKHX09Pj7NKb3FxsU+9jY1mBodHtXxLq77x8BvqGAjqE+fW6bqTKzS7hLv8YqOC9BIBBBBAAAEEEEAAAQQQQAABBKZCgMBvKlQnOfBrbGzUwMCA5syZ41NvY6cZu8vvF8t36Kk3WzSvLEcffluNrjyhQgmxMwR6igACCCCAAAIIIIAAAggggAACCEyqAIHfpHIe/mBe7vCz7+8bHR1VVlaWT72NnWa6B4e1ZleHvvjAGxoKjur9Z83SR99Wq+Kc9NgZBD1FAAEEEEAAAQQQQAABBBBAAAEEJlGAwG8SMY90KC+BX1tbm7NoR1VVlU+9jZ1mRkbD2t89qK8ue0Pr93brpKo83XzGLF28qCx2BkFPEUAAAQQQQAABBBBAAAEEEEAAgUkUIPCbRMypCvw6OzudRTtmzpzpU29jq5mBAyO6Z+1e3b1mjwLDo7p88Uz9y8XzlJGSpASe7Y2tYtJbBBBAAAEEEEAAAQQQQAABBBDwLEDg55kwsgN4ucPP9rVHejMzMyNrLM62GgmFtadjQN9+7E29tLNDJ1bl6etXLNSc0hylJCXGmQbDRQABBBBAAAEEEEAAAQQQQACBeBcg8PNpBngJ/BoaGtTX16dFixb51NvYbOb/PLVFD6/fLylB155Yro8trVNOekpsDoZeI4AAAggggAACCCCAAAIIIIAAAhMUIPCbINx4d/MS+AUCAecOv+zs7PE2G1fbr97Rrt+s2q3nt7ZrdnGW/vM9J6uyIFPJiTzXG1cTgcEigAACCCCAAAIIIIAAAgggEOcCBH4+TQAvgV9HR4fzHX7l5eU+9TY2m+kaGNadq3frrpf2KByWPnfxPF24oEQluazYG5sVpdcIIIAAAggggAACCCCAAAIIIDARAQK/iahNYB8vgR+r9EYO/tSbLfrtqt1au7tTZ88u0j9fMEfHV85QIqt3RI7IlggggAACCCCAAAIIIIAAAgggENMCBH4+lc9L4Gff3xcMBlVQUOBTb2O3mT0dg3p0Q6N++uw2pSYn6ptXLtJFC0uVm8F3+cVuVek5AggggAACCCCAAAIIIIAAAgiMR4DAbzxaHrb1Evi1t7fLvsevqqrKQw/iY9dQOKxV29v1pQffUGNPQO88pVLvPKVaJ1XnxQcAo0QAAQQQQAABBBBAAAEEEEAAgbgXIPDzaQp4Cfw6Ozs1NDTEd/hFWKudbQO6Z22D7l7ToOLsNH3snFrddFq1kli8I0JBNkMAAQQQQAABBBBAAAEEEEAAgVgWIPDzqXpeAr+enh4NDw+ruLjYp97GdjP9B0b0+r4efeGBjeroP6BrTqrQh86u0eySnNgeGL1HAAEEEEAAAQQQQAABBBBAAAEEIhAg8IsAaTI28RL4sUrv+CoQDofVMTCsbz26SSu3d6imMFPvPLVKN51j8aFPAAAgAElEQVRaPb4DsTUCCCCAAAIIIIAAAggggAACCCAQgwIEfj4VzUvgZ6v02nf4VVcTWEVarkBwVE9vatEvX9ihxu6ALlhQqq9fsVDZ6cms2BspItshgAACCCCAAAIIIIAAAggggEBMChD4+VQ2L4Gf7RsKhZSRkeFTb2O/mXBYskd7P//fG/TcW62aX5ajz75jnk6vLVTa/7d6Ly8EEEAAAQQQQAABBBBAAAEEEEBgugoQ+PlUWS+B3/79+zU4OKg5c+b41Nvp0Yyt2Hvnqt3671f3qa3vgM6fX6wvX7ZQMzJSpscAGQUCCCCAAAIIIIAAAggggAACCCBwCAECP5+mhZfAr7+/X8FgUPn5+T71dvo0s6mxR3e8uFt/fL1JlfkZ+vcbjtf8slxlpiZNn0EyEgQQQAABBBBAAAEEEEAAAQQQQGCMAIGfT9PBS+DX19fnBH4FBQU+9Xb6NBMYHtUfXm7Q7St3qScQ1MfPqXNW7a0qyJw+g2QkCCCAAAIIIIAAAggggAACCCCAAIGf/3PAS+DX1NTkPNJbX1/vf8enQYsv7ezQ79c06Ik3mrVwZo6+cOkCnVZToOSkhGkwOoaAAAIIIIAAAggggAACCCCAAAII/K0Ad/j5NCO8BH6jo6NOL5OSeAx1IuXqHgzqiTea9JVlrysUkr551SJdsXiminLSJnI49kEAAQQQQAABBBBAAAEEEEAAAQSiWoDAz6fyeAn87A6/QCCguro6n3o7vZoZDYX1WkOXbn1yi17b263z5xbr5jNm6Zy5xdNroIwGAQQQQAABBBBAAAEEEEAAAQQQkETg59M08BL4dXV1yfYvKyvzqbfTr5mm7oDzSO+P/rxNGalJ+tDZNU7ol52WPP0Gy4gQQAABBBBAAAEEEEAAAQQQQCCuBQj8fCq/l8Cvp6dHw8PDKi7mjrSJlmsoOKodrQP61wc2aGfbgC5aWOqEfidVs/LxRE3ZDwEEEEAAAQQQQAABBBBAAAEEolOAwM+nungJ/Nra2jQ0NKSqqiqfejs9m+kNBPV/n96qP21qVk56iq47uUIfPadOyYks3jE9K86oEEAAAQQQQAABBBBAAAEEEIhPAQI/n+ruJfDr7u527vArKSnxqbfTs5nhkZA27uvW9554y/n3uXOL9YMbTlBeZooSEwj9pmfVGRUCCCCAAAIIIIAAAggggAAC8SdA4OdTzb0EfjzSOzlFCoelwPCIvvP4Zj25qVlF2Wn68Nm1uvKEcmWmsgLy5ChzFAQQQAABBBBAAAEEEEAAAQQQONYCBH4+VcBL4Nfe3u480ltZWelTb6d3M8vW7dcfXm7QluY+nVJToO9cc5xKctO4y296l53RIYAAAggggAACCCCAAAIIIBA3AgR+PpXaAr/HH39cX/rSl/TAAw+oqKhImZmZSk5OVm9vr/P/didfYmKiUlNTNTg4qPT0dIVCIXV2dioYDKqiokIDAwPKzs52/t+KN2PGDFkgmJOTo9HRUefPbT97BNheSUlJCofDzv/n5uaqr6/POX5KSorTXkFBgfr7+5WQkOD8mW1nfbB/7Hj2suPZY8V5eXnO8e0ft92srCzn+NYXG4u9xv53IBBw2rAx2vHtHztWfn6+7Gf2sv2sLRur/dz2t2PasW2FYmvL2nTHYP1OS0tz9rX9rO92DDO2/a3vNibX1H5mf259MKftzT26d22Dnnyzxfkuv69cMkcn1pYoWSGnD+7Y3HbtuLaf2ZunHd+2s3/MxmplpgfX0ra1dsfW0vax/e1n9udWSxuXjcN87fsa3Vran2dkZByylraNjXFsLQsLC50x2vGtXeu39cl8xtbS/NyxmavbrltL+zM7rvXV9nPr6tbS9nfbPVQtrX5uXY9WS9vfDMfW0mxs7DYG67u5H6qWNp9tO5sr7jy39tz5f6Ramp17fBujHWNsLe149l5x27X/tzFbX6wm7nwdW0vzMzv72cHvy7G1tDHZftambW9zwNqyOe2+L49WSzuG9cfqbW3Z8W3skdbS/gLBtrX9x9bS3qs2Rvc9dXAtrU523jr4fWl9sD9za2n7ue+Vw9XSPR/YfDpcLc3EjKyWtk1HR8df5677vjy4ltZHG5PNV/v34Wpp+9lYxtbS6mI29ucH19Lat3HZeOzntp17rnTPgfbndtyxtRx7brcx237Wr7Fz3v7c5oC1cfC53eaHjd99X7rz1cZlr0PV0kztHHu0Wtpctrq553Ybm9XSPnPsZ+753NqyOeGe2w9+X449t9uxrE9jP39sP7eWZmXnr7G1tHZtnIerpR3P2jhcLc3O3n/u+caty8G1dN8fR6qle947Wi3HzjEbk+3nfo7aOGyMR6qlebj9dWtpc3o8n9O2n/sePdTntB3r4Foe/DltfbbPIjvn2Lw5Ui3dzz0bu43Nxm11szbGfk7b2O3cMvZz2uaD+7l0pM9pq6V7jWPHd2tpNu7nofXjULW0OWBjGfs5be8Xq6W9Fw71Oe1ec7nni6PV0m137PvSndvunLd/H6qW9nlnzhO95rL3jI1lItdcY9+XY6+5JlLLSK+5DlVL23fs5+HhPqfN9+BaTvSay+3v0a65jnT9fKhrroOvnw93zRXp9bPVdSLXXO5ngtXVPacc6n1p54OjXXMd7frZfd+75yyrpZ173M/pQ10/u7V0r0en4vr5SNdcYz+LJuua63C/Cx3u+vlI11w2L8deM0/k+jmSay7zt/f7oa65rE3r+3ivudxa2n5Huuayc76dgw++5rJ5ZPvZuftIvwu511z2Xnav9w9Xy4N/nzb7sb8Ljb1+PtQ118G/Cx2ray57L0Z6/WznnsNdcx3q+vlo11yTdf08VddcY6+fbU7bZ83Ya67DfU4ffM0V6e9CNtfc3/fca66Dr59tm0ivucb+XjuZ11xmMfZ3fvt/9/rZPl9ef/11XXfddfrJT36ia6655q/XaM7kOcIrIRAIhN1f8I62cbz/3N6MTz/9tP7t3/5Nt912m3PStQ8o89u/f7/mzZunvXv3OiclO9nYBbRNHDvR2MnZ3rBlZWVqbW11/m0fEHZMW8hjy5Ytzp/ZZLM/t4lu/7bi2kSyf9sFZnl5uZqampw3hU1Ua2/27NnOn9lEdn/BcX9JdkND64dtW11d7ZyYbaJau9u2bXMCEeubTSg7prVl/bKTv006G0d9fb327dvnjMu2aWhoUE1NjfMze7kBjXthbseyY9qqxDt37vxru+4YrC/WJ3tZH+3kb+3ZG96Ob4YtLS1/NbXj29jMeebMmeofGNCzm1v02Bst2t8d0NKaXL37nAXKT7WLrRHnTsqtW7c6YzRHO675WrDq2tgb3g1Y7CLcxnZwLc3e2rWfu79Q2xjd/trxSktL/66W1kcbl1tLG7fVx8ZlLvbn1p/m5uYj1tL6bX1yPzTMy9ysFu7YrJ7uHDJvt5buh7L1w/2lzS4Ua2trHcdD1dLqbdta/W0eWC2OVEsLsG0u2PvA/QXJDdZszLa//b/Neff9MbaWNp9tu7Hz3MZjxzMjq8/YWtrPzMTM7Zh2fLOx7awu7onaxmbjaGxs/Gu7VnczsUDWLvLdCxO3vzaXzc/atZ+5ptZH87D3jO1n7Y+tpfXJ+nNwLefMmeM4W82tXTsHuP2145u1XUTbNjZGO87YWtr3fbpzxQ1CbJxu0GTHmzVrlrO/Hcd9X1p9bV5aH83ajmlt2X9bLc3afmHdtWvX37wvrZa7d+92Qib3HGDz3/rvhqQH19LatLHZ+9nGYDZja2ntWU3M1Opj74vt27c7tm4t7X1g7/WxtbRx2znOgiwbu435ULW0OWDnL6uP+760Ptt+Vkvrt51T3VraGK1PNufcQNbG5L4v7We2n9XS+u2eY+fOneu859xa2vvI+uVeYJuv/b+dh60NG6+7SJOd221+WO1szGP/gmBsLe3cbGMcW8u6ujpnvo6tpRtuuO9Rm5NWt7HnduuD1XdsLa0t29f6YOOyPtux3bG5tbT3s3m5tbT9zNYNZ23/I9XS7MzCjm/29rL/d82sPubkng/s+PZz28/s3fONWVttbJ5brcz0cLW0OWDHd+erG+rafjZHXFOr4djPaZu7tp8b/Nh+ZmQW1p8j1dL6Y3PEfU/ZOGzuW0hm7wUbo9uuvT+sltYX9/juXz7Zfm4trV579uz5m1rasXbs2OGcew7+bB5bS3vP2znH2hp7brd5YYb2srZsjO4vWW4t7T1obYx9X9p5z84t9j50Ax47hnsus3+btzm5pnbOtT+3P7Pzlx3f3stWSxu3zSkbx8G1dM9/9r60OWDnYjfYc2tp+9l8PVwt3Wsu66+1ObaWkVxzuZ85rpNZW39tDtj7cuw1l10P2RhtftpccUNuG6d7zWXHs/fS4a657Phu/SK95rLzvZ3b3M9p9zPMxu5am7tdc7m1tL7Zedfmvs1Xt5buZ4LNV/cvrg93zWXz4+Ba2nHd61Szds+xY2tpfbFrp7G1dP+C0uar1fJI11xmaOcat5a2rc2BQ10/2xjt2Pa+sn7Zv+3lXj/b/x/pmsutpfsXd+5fWpqT1d69fra5axbudYnN17G1tLnnXnPZvlavSK65bB/b92jXXPa+HHvN5V4/m7F7zXW062ezcD+nzcg1O9w1l80RszN793p07DWX1fhwtbS5afvZuc39C7ix1882Rw51zWXjsn7ZfpFec7m/C9nxbU5bv62/7meRW8vDXT9bX2y+ueGVe650fxeyWtrvPYe65jKDg6+zxtbSPqMOdc1l53v3+tnGbLVzr7lsDHbePNT1s43Bzk3u9bP7F/wHXz/bNvZ7XqTXXHbuncrrZ6vJ2Gsu66+527ln7Dn24Gsu9/p5bC1tztm5+VCf02NrOfaay/1dyI5n5+aDa3moa66Dfy860jWXnXvc34Xc3zXdG0aslvZecD8vD75+Nhv388f9Pc5MbH/7/8NdP9tnkTtXbM7atjZmu7axP7d+HOqay8wPdf3s/qXW4a657H1p11a2nTtf7X1j89eO5/4u5P5uMLaW7k1AE71+Ng/3et+9fjY3m99Hu352//LJDdDM+lC1PNo1l3sOPNw1l/VlbC1dG/cvTQ5XS6uvO4ax89y9TrV/23tnzZo1+vCHP6z//M//JPCbqmDSyyO99gFtJ+aFCxdOVffi7rib9vfo/lf36a6X9qgwK1X/fv3xOmduMSv2xt1MYMAIIIAAAggggAACCCCAAAIITD8BC3TtL2fPO+88/ehHPyLwm6oSewn8bF/3b++mqn/xdtyBAyN65q0WfePhTRoYHtU/LK3TNSdWqL4kO94oGC8CCCCAAAIIIIAAAggggAACCEwzAQI/nwrqJfCzWz9tf7v1mNfkCNgjCW809uoXy3fombdadVxFrj50Vo0uW1yuhITJaYOjIIAAAggggAACCCCAAAIIIIAAAsdCgMDPJ3UvgZ99L4Ltb89o85o8gfb+A1qxrU3fe/wtBUdDeu/p1frgWbUqzvnLgiC8EEAAAQQQQAABBBBAAAEEEEAAgVgUIPDzqWpeAj8e6Z2aIo2GwmrqCejT96zX5qZenV5XqPefMUvnzy+ZmgY5KgIIIIAAAggggAACCCCAAAIIIOCDAIGfD8jWhJfAz1ZiskU7Fi1a5FNv46cZ+y6/u17arXvX7lNgeFRXHD9TX758gRJ5rjd+JgEjRQABBBBAAAEEEEAAAQQQQGCaCRD4+VRQL4GfhX22JL0tMc9rcgVGQmHt6RhwFu9Yu7tTp9YU6CuXL9DskmylJCVObmMcDQEEEEAAAQQQQAABBBBAAAEEEPBBgMDPB2Rrwkvgx3f4TV2RwmFpeCSkHz+zVY9ubFJignTjkip98OwaZaclT13DHBkBBBBAAAEEEEAAAQQQQAABBBCYIgECvymCPfiwXgI/W6V3aGhIlZWVPvU2/pp5fkurfvvSHq3Z2amFM3P1/esXq7ogk7v84m8qMGIEEEAAAQQQQAABBBBAAAEEYl6AwM+nEnoJ/Hp6ejQ8PKzi4mKfeht/zXQNDOv2lbv0m1W7lZSQoG9ctVBL5xSrMJsVe+NvNjBiBBBAAAEEEEAAAQQQQAABBGJbgMDPp/p5Cfy6urqcR4LLysp86m18NvOnN5p1x8pd2rCvR+fMKdKnL5ij4ypmxCcGo0YAAQQQQAABBBBAAAEEEEAAgZgVIPDzqXReAr+2tjbnkd6qqiqfehufzezpGNSy9fv14z9vVU56sv7tquN0wYJSZafzXX7xOSMYNQIIIIAAAggggAACCCCAAAKxKUDg51PdvAR+9kivrdJbVFTkU2/js5mh4KhWbm/X9x5/Sw2dA3rXqVV65ylVOr4yLz5BGDUCCCCAAAIIIIAAAggggAACCMSkAIGfT2XzEvixSq9PRZK0o61fd63eo/tf3aeq/Axntd7rTqpUanKif52gJQQQQAABBBBAAAEEEEAAAQQQQMCDAIGfB7zx7Ool8GtpadHg4KBqa2vH0yTbTkCgbyio9Xu79cUHX1db3wHddGqVPra0TlX5mRM4GrsggAACCCCAAAIIIIAAAggggAAC/gsQ+Plk7iXwGx0dVTgcVnIy3yXnR7k6Bw7o8/+9Ua/s7tLc0my9+7RqXXdypR9N0wYCCCCAAAIIIIAAAggggAACCCDgWYDAzzNhZAfwEvg1NjY6d/jNnj07ssbYypNAYHhUf9rUpF8+v1NNPUN6x6JSffOqRcpISVZCgqdDszMCCCCAAAIIIIAAAggggAACCCAw5QIEflNO/JcGvAR+/f39zqId+fn5PvU2vpsZDYXV0juk7/xxs1Zsa9Oc0hx95sI5Oq22UGl8l198Tw5GjwACCCCAAAIIIIAAAggggEAMCBD4+VQkL4FfX1+fE/gVFBT41FuasUeof7Vipx54bb96AkFdvLBUn7lorvIyU8VNfswPBBBAAAEEEEAAAQQQQAABBBCIZgECP5+q4yXw45Fen4p0UDO2eMdvVu7Wk5uaVZ6Xrp+++yTVl2QrLTnp2HSIVhFAAAEEEEAAAQQQQAABBBBAAIEIBAj8IkCajE28BH7Dw8MKhUJKT0+fjK5wjAgFRkbDun3lLv3i+R0Kjob0qfNn6/ITylWRlxHhEdgMAQQQQAABBBBAAAEEEEAAAQQQ8F+AwM8ncy+BX2trqwKBgGbNmuVTb2nGBMJhaeWOdv1+TYOefrNFi8pz9ZXLF+iUWQUs3sEUQQABBBBAAAEEEEAAAQQQQACBqBUg8POpNF4Cv87OTmfRj5kzZ/rUW5pxBWzxjsdfb9Z/PPmWkhMT9NmL5+nS48pUmsvdlswSBBBAAAEEEEAAAQQQQAABBBCITgECP5/q4iXw6+npkT3WW1xc7FNvacYVsBV71+7u1P9+4i292dirixaW6j2nV+vs2UUgIYAAAggggAACCCCAAAIIIIAAAlEpQODnU1m8BH4dHR0aGhpSRUWFT72lmbEC+7oCenj9fv3XCzuVlZqkD7+tVu89fZYyUlm8g5mCAAIIIIAAAggggAACCCCAAALRJ0Dg51NNCPx8gp6CZmzBjt3tA/rQb9aqsXtI15xUro+eU6eFM3OnoDUOiQACCCCAAAIIIIAAAggggAACCHgTIPDz5hfx3l4Cv76+PgWDQRUUFETcHhtOnoAt3tE9OKwfPr3VWbwjLzNFNyypdEI/XggggAACCCCAAAIIIIAAAggggEC0CRD4+VQRL4FfW1ub80hvVVWVT72lmYMFDoyE9PKuDv3wqa3a3tavc+cWOyv2luSkKykxATAEEEAAAQQQQAABBBBAAAEEEEAgagQI/HwqhZfAj1V6fSrSEZoJhcPqGxrR9/64WU+92aKyGWn6xLn1unhRmTJS+C6/Y18heoAAAggggAACCCCAAAIIIIAAAq4AgZ9Pc8FL4Dc4OCgrVG4u3xnnU7kO28z9r+zVPWv3alf7gM6sK9DXr1yk4pw0JSZwl9+xrg3tI4AAAggggAACCCCAAAIIIIDAXwQI/HyaCV4Cvz179qi/v1+LFi3yqbc0cziB/V0B/fz5HfrdS3tUlJ2qX9y8RAvLZyiTFXuZNAgggAACCCCAAAIIIIAAAgggECUCBH4+FcJL4Dc8PKzR0VFlZGT41FuaOZzA8GhID7y6T3es3KX93QG969Qqvff0WaovzgYNAQQQQAABBBBAAAEEEEAAAQQQiAoBAj+fyuAl8Ovo6JDtX15e7lNvaeZIAhv3des+e7T35b2aVZipr16+UGfNLlJaciJwCCCAAAIIIIAAAggggAACCCCAwDEXIPDzqQReAr/29nZnld7KykqfekszRxLoCQT1zOYWfe/xzeoJjOhTb5+tq08s16zCLOAQQAABBBBAAAEEEEAAAQQQQACBYy5A4OdTCbwEfhb2WaGys3ls1KdyHbWZ1/f16Ed/3qoXt7frlJoCvf/MWbpoYSmLdxxVjg0QQAABBBBAAAEEEEAAAQQQQGCqBQj8plr4f47vJfDbt2+fbKXeuXPn+tRbmjmaQHv/Aa3Y1qZvPfqmhoIhfXxpnf7h3DplpSYfbVd+jgACCCCAAAIIIIAAAggggAACCEypAIHflPL+/wf3Evj19vYqGAyqsLDQp97SzNEERkZDzqIdt9yzXltb+3VWfaHed8YsLZ1bfLRd+TkCCCCAAAIIIIAAAggggAACCCAwpQJxH/itWLFCr732muwuunA4rA9/+MOqra11VsS1kK6pqUmPPfaYbOGMhIQE52cXX3yxioqKlJSUFHFxvAR+XV1dspV6S0tLI26PDadeoH9oRLev3OWs2huSdNUJM/WZC+cqKSlRCVPfPC0ggAACCCCAAAIIIIAAAggggAAChxSI+8Dv4YcfdgK/jRs3at26dbrtttt02mmnKTc3Vw0NDXr88ce1YcMG5/vzDCsxMVGLFy/WjTfeqKysyBdp8BL42aIdtn9FRQXTOIoEgqMhvdXUp3//01tat7dbp8zK11cuX6C6omwlJxH5RVGp6AoCCCCAAAIIIIAAAggggAACcSUQ94Hfjh07nDv7LNT7zne+o1tvvVWnnHKKE/DZ3X/f/va3nbv+3v72tzvfo2d3+1lIeOedd6q8vNwJACN5eQn87A4/27+srCySptjGR4HRUFjff3yzHt3YpMzUJL37tGq95/RqZafxXX4+loGmEEAAAQQQQAABBBBAAAEEEEBgjEDcB36uxTPPPKPPfe5zfw387HHdRx99VF/72tf07LPPqrKy0tn0qaee0r/8y7/o17/+tXOnX6R3+XkJ/PgOv+h+zz6zuUV3vbRHa3Z2an5Zjn5x8xKV5KY5j4DzQgABBBBAAAEEEEAAAQQQQAABBPwWIPD7H/GDA79AIKA//vGP+uUvf6lHHnnkr9+f9/zzzzsh4Be+8AWdeeaZKigo+LuajY6OOo//2j/uywI/uzvQ9lu+fLnq6+uVnBzZXWAtLS2y/tTU1Pg9P2gvAoHO/mHd9uJO/Xb1HmWkJumrly/U2+YUqTArNYK92QQBBBBAAAEEEEAAAQQQQAABBBCYXAECv8MEfv39/U7gZ4/uPvjggyopKXG2tMd8v/nNb+pTn/qU3va2tzmLdxz8euutt2TB4Jo1a/76IwsB7TsB7WfjDfzsDj9btONQbU3udOBoExGwx3qfeKNJd67ao9f39+iCBSX6x/Pqtah8xkQOxz4IIIAAAggggAACCCCAAAIIIICAJwECv8MEfhaw2R15P/3pT53gz/3+vOeee05f+cpXnNDPFvfIy8s7bOD30ksv/V3gt2XLlnEHft3d3c53+LFKr6e5PqU7b2/t10Pr9utXK3YqLzNVX71svs6fX6Kc9JQpbZeDI4AAAggggAACCCCAAAIIIIAAAgcLEPgdJvBLSUnRE088oa9//eu69957NXv2bIVCIT355JP61re+pdtvv13z589XRkbG382qyX6kt6mpyVkwxB4D5hWdAsMjIb2wtU1fe/gNtfYd0AfOnKUbllRpYXludHaYXiGAAAIIIIAAAggggAACCCCAwLQVIPA7TOCXm5urVatWOav0XnXVVbriiivU19fnfJ+fPZJ71113qbi4OOKJ4WXRjogbYcNjKrCtpU93rNytZev3q7ogUx89p043LPnLYi+8EEAAAQQQQAABBBBAAAEEEEAAAb8E4j7wu//++2ULdqxbt875fr0FCxaosLBQ73vf+3TBBRfoxRdf1H333aehoSHnDj9brffqq6/W0qVLlZ6eHnGdvAR+3OEXMfMx3bB3KKj1Dd363P0b1Dc0onefVq0Pv61GlfmZx7RfNI4AAggggAACCCCAAAIIIIAAAvElEPeB3xtvvKFdu3apo6PDWRgjNTVV9jjv8ccf7zyy29XVpVdeeUW2iIe9bPGOE044QTNmzFBiYmLEs8VL4GeLdgSDQSeI5BW9ArZ4R0vvkL7xyCat3d2p+WW5es9p1brqxPLo7TQ9QwABBBBAAAEEEEAAAQQQQACBaScQ94GfXxX1EvjZo8QW+BUUFPjVXdqZoMDg8Kge2bBft7+4S12DQV2yqEz/esk8ZaclKyEhYYJHZTcEEEAAAQQQQAABBBBAAAEEEEAgcgECv8itPG3pJfBrbGx0Fu2whUN4RbfA2Lv8XtjWpkXlM/SVy+ZrcWWeUpMivyM0ukdJ7xBAAAEEEEAAAQQQQAABBBBAIJoFCPx8qo6XwC8QCMgKlZOT41NvacarwM+e26YHX9uvQDCkS48r06cvmKPcjBSvh2V/BBBAAAEEEEAAAQQQQAABBBBA4KgCBH5HJZqcDbwEfu3t7c6iIbZgCK/YEFjX0OU81vvkmy2qLcrST246yfl3ajJ3+cVGBeklAggggAACCCCAAAIIIIAAArErQODnU+28BH62oIjtX17O4g8+lctzM72BoO5e06A7V+1WIDiqf75gjnOnX3lehudjcwAEEEAAAQQQQAABBBBAAAEEEEDgSAIEfj7NDy+BX3d3tzKYw1gAACAASURBVLOCsK0QzCt2BJ7f2qbfrd6j57e1acmsfH32ork6qTpfSYks3hE7VaSnCCCAAAIIIIAAAggggAACCMSeAIGfTzXzEvh1dXU5d/iVlZX51FuamQyBpp6AHtvYpFuf2ioprG9cuUiXHFem/MzUyTg8x0AAAQQQQAABBBBAAAEEEEAAAQQOKUDg59PE8BL4tbS0yBbuqKmp8am3NDMZAuFwWGt2derry97Qzo4BXbG4XO8+vVqn1xZMxuE5BgIIIIAAAggggAACCCCAAAIIIEDgdyzngJfAb2BgQMFgUHl5ecdyCLQ9AYGGzkE99Np+3fbiTuWkJetjS+v03jNmKTWJxTsmwMkuCCCAAAIIIIAAAggggAACCCAQgQB3+EWANBmbeAn82tranFV6q6qqJqMrHMNHgcHhEW1u6tMXHtioxu6ALl88Ux88u0aLymf42AuaQgABBBBAAAEEEEAAAQQQQACBeBIg8POp2l4CP1bp9alIU9BMOCx1Dw7r+09s1nNb2lSam64bl1TqfWfOUmICi3dMATmHRAABBBBAAAEEEEAAAQQQQCDuBQj8fJoCXgI/2zcUCikjI8On3tLMZAocGAlpxdY2/fS57drZ1q/z5pboW1cvUl5mCqHfZEJzLAQQQAABBBBAAAEEEEAAAQQQcAQI/HyaCF4Cvz179qi/v1+LFi3yqbc0M5kCYUkHgqP61//eqD9vblFdUZb+19tn67x5JUpPSZrMpjgWAggggAACCCCAAAIIIIAAAgggQODn1xzwEvhxh59fVZq6dkLhsO5du1f3vbJXezoGdVZ9of7tquNUkJ06dY1yZAQQQAABBBBAAAEEEEAAAQQQiEsB7vDzqexeAr/Ozk5n0Y7y8nKfekszUyGwvbVft7+4S8vW71dJTpq+f91iLa7MU3Za8lQ0xzERQAABBBBAAAEEEEAAAQQQQCBOBQj8fCq8l8CvtbXVCfyqq6t96i3NTIXA8GhI963d64R+LX0H9L4zqvWuU6pVW5w1Fc1xTAQQQAABBBBAAAEEEEAAAQQQiFMBAj+fCu8l8BscHHSevc7NzfWptzQzVQKv7ulyHu19aN1+1RRm6l8umqu3zSlSTnrKVDXJcRFAAAEEEEAAAQQQQAABBBBAIM4ECPx8KriXwK+5uVkW+tXV1fnUW5qZKoGBAyN6clOzvvDg6xoZDemC+aW6+YxqnTu3WAkJCVPVLMdFAAEEEEAAAQQQQAABBBBAAIE4EiDw86nYXgK/7u5u2f6lpaU+9ZZmpkrAFu/Y2TbgLN7x+zUNSkxM0NI5RbphSaWzai8vBBBAAAEEEEAAAQQQQAABBBBAwKsAgZ9XwQj39xr4DQ8Pq6SEQChC7qjebHB4RDvaBnT3mgY991arwuGwzqov0k2nVenk6nylJidGdf/pHAIIIIAAAggggAACCCCAAAIIRLcAgZ9P9fES+HV0dDiLdlRUVPjUW5qZaoHgaEgb9/U4d/m9uL1dduff0jnFzuO9c0tzlMXKvVNdAo6PAAIIIIAAAggggAACCCCAwLQVIPDzqbQEfj5Bx1gzq7a3675X9zl3+lkIeP3Jlc7jvfPKcpSekhRjo6G7CCCAAAIIIIAAAggggAACCCAQDQIEfj5VwUvgxyq9PhXpGDQTDkurdrTrDy836LGNTUpMSNAHz67RDSdXamE5qzIfg5LQJAIIIIAAAggggAACCCCAAAIxL0Dg51MJvQR+TU1NCgQCrNLrU638bqZ/aETrGrr0u5f26Plt7cpNT9blx8/UjUuqCP38LgbtIYAAAggggAACCCCAAAIIIDANBAj8fCqil8Cvt7dXwWBQhYWFPvWWZvwW6B4c1vq93bpz1R6t29ulvIwUXbigVDedVq2aoiwlJyb43SXaQwABBBBAAAEEEEAAAQQQQACBGBUg8POpcAR+PkHHcDOB4Kie3dyq+1/Zqw37ujUjI0VXnlCu606uVHlehtJYvTeGq0vXEUAAAQQQQAABBBBAAAEEEPBPgMDPJ2svgZ890mvf41dfX+9Tb2nmWAmEw2E9+Np+Pbhun3PHX2pykv7xvHrnbr/K/AylJCUeq67RLgIIIIAAAggggAACCCCAAAIIxIgAgZ9PhfIS+FkXLQhKSOCxTp/KdUybGRkN6bGNjbpz9R4n9MtMSdJnLpqryxbPdO7044UAAggggAACCCCAAAIIIIAAAggcSYDAz6f54SXwa25udu7wq6ur86m3NHMsBcKSOvsP6MXt7frVil3a1tLnBH03Lql0Hu8tm5F+LLtH2wgggAACCCCAAAIIIIAAAgggEOUCBH4+FchL4Nfd3a3h4WGVlJT41FuaOdYCdkdnS+8BrdjWrjtX7dKezkHVFGY5q/fesKRSBVmpSuSOz2NdJtpHAAEEEEAAAQQQQAABBBBAICoFCPx8KouXwK+vr89ZpbegoMCn3tJMNAiEwmH1Bkb0wGv79MiGRu1qH9Csgky969QqvWNRmfKzUlm9NxoKRR8QQAABBBBAAAEEEEAAAQQQiDIBAj+fCuIl8GtpaXEe6a2trfWptzQTLQLhsDQ0Mqo7Vu7WYxsatbtjQMU5afrcxfN0em2BinLSuNMvWopFPxBAAAEEEEAAAQQQQAABBBC