{"type":"wb","version":2,"source":"https://www.iodraw.com","elements":[{"id":"6XheCqV9ZUtlXLxzVXiZZ","type":"text","x":372.71429443359375,"y":176.42857360839844,"width":500,"height":75,"angle":0,"strokeColor":"#000000","backgroundColor":"transparent","fillStyle":"hachure","strokeWidth":1,"strokeStyle":"solid","roughness":1,"opacity":100,"groupIds":[],"strokeSharpness":"sharp","seed":847946643,"version":193,"versionNonce":1009209405,"isDeleted":false,"boundElements":null,"updated":1763042161135,"link":null,"text":"主要对比当其他参数都相同时，模拟时间不同导致的结果\n目前对比模拟时长130秒和690秒的对比\n","fontSize":20,"fontFamily":2,"textAlign":"left","verticalAlign":"top","baseline":71,"containerId":null,"originalText":"主要对比当其他参数都相同时，模拟时间不同导致的结果\n目前对比模拟时长130秒和690秒的对比\n"},{"id":"wGOg8_SUkkuOtqKSDSyKM","type":"text","x":476,"y":313,"width":984,"height":601,"angle":0,"strokeColor":"#000000","backgroundColor":"transparent","fillStyle":"hachure","strokeWidth":1,"strokeStyle":"solid","roughness":1,"opacity":100,"groupIds":[],"strokeSharpness":"sharp","seed":229335987,"version":1,"versionNonce":0,"isDeleted":false,"boundElements":null,"updated":1763042542952,"link":null,"text":"关于湍流强度差异的原因\r\n您设置的 IECturbc = 8.03 是目标湍流强度，但实际生成的湍流强度（7.0986 和 7.8469）与之不同，原因包括：\r\n\r\n1. IEC 标准的复杂性\r\nIEC 61400-1 标准中的湍流强度是基于特定高度和风速条件的\r\nTurbSim 会根据风切变、大气稳定性等因素调整实际值\r\n2. 空间和时间平均的差异\r\n8.03% 可能是某个参考点或参考条件下的值\r\nPyDatView 显示的是整个风场网格和时间序列的平均值\r\n不同位置的湍流强度会有变化\r\n3. 模型修正\r\nTurbSim 的 NWTCUP 模型会对理论值进行修正\r\n考虑了实际大气边界层的物理特性\r\n包含了相干结构和谱特性的影响\r\n4. 时间长度的影响\r\n较长的仿真时间（690秒）通常会产生更接近目标值的统计特性\r\n130秒可能不足以充分发展所有湍流尺度\r\n建议\r\n检查输入参数：确认风速、高度、地表粗糙度等参数设置\r\n查看详细输出：检查 TurbSim 的 .sum 文件，了解实际计算的参数\r\n位置分析：在 PyDatView 中查看不同网格点的湍流强度分布\r\n时间序列分析：分析不同时间段的湍流强度变化\r\n这些差异在工程应用中是正常的，重要的是理解其物理意义并确保仿真设置符合您的研究目标。","fontSize":20,"fontFamily":2,"textAlign":"left","verticalAlign":"top","baseline":596,"containerId":null,"originalText":"关于湍流强度差异的原因\r\n您设置的 IECturbc = 8.03 是目标湍流强度，但实际生成的湍流强度（7.0986 和 7.8469）与之不同，原因包括：\r\n\r\n1. IEC 标准的复杂性\r\nIEC 61400-1 标准中的湍流强度是基于特定高度和风速条件的\r\nTurbSim 会根据风切变、大气稳定性等因素调整实际值\r\n2. 空间和时间平均的差异\r\n8.03% 可能是某个参考点或参考条件下的值\r\nPyDatView 显示的是整个风场网格和时间序列的平均值\r\n不同位置的湍流强度会有变化\r\n3. 模型修正\r\nTurbSim 的 NWTCUP 模型会对理论值进行修正\r\n考虑了实际大气边界层的物理特性\r\n包含了相干结构和谱特性的影响\r\n4. 时间长度的影响\r\n较长的仿真时间（690秒）通常会产生更接近目标值的统计特性\r\n130秒可能不足以充分发展所有湍流尺度\r\n建议\r\n检查输入参数：确认风速、高度、地表粗糙度等参数设置\r\n查看详细输出：检查 TurbSim 的 .sum 文件，了解实际计算的参数\r\n位置分析：在 PyDatView 中查看不同网格点的湍流强度分布\r\n时间序列分析：分析不同时间段的湍流强度变化\r\n这些差异在工程应用中是正常的，重要的是理解其物理意义并确保仿真设置符合您的研究目标。"}],"appState":{"theme":"light","currentChartType":"bar","currentItemBackgroundColor":"transparent","currentItemEndArrowhead":"arrow","currentItemFillStyle":"hachure","currentItemFontFamily":2,"currentItemFontSize":20,"currentItemLinearStrokeSharpness":"round","currentItemOpacity":100,"currentItemRoughness":1,"currentItemStartArrowhead":null,"currentItemStrokeColor":"#000000","currentItemStrokeSharpness":"sharp","currentItemStrokeStyle":"solid","currentItemStrokeWidth":1,"currentItemTextAlign":"left","cursorButton":"up","editingGroupId":null,"elementLocked":false,"elementType":"selection","exportBackground":true,"exportScale":1,"exportEmbedScene":false,"exportWithDarkMode":false,"gridSize":null,"lastPointerDownWith":"mouse","name":"Untitled-2025-11-13-2154","openMenu":null,"previousSelectedElementIds":{},"scrolledOutside":false,"scrollX":0,"scrollY":0,"selectedElementIds":{"wGOg8_SUkkuOtqKSDSyKM":true},"selectedGroupIds":{},"shouldCacheIgnoreZoom":false,"showStats":false,"viewBackgroundColor":"#ffffff","zenModeEnabled":false,"zoom":{"value":1}},"files":{}}